# generated using pymatgen
data_Li23Er8Br48
_symmetry_space_group_name_H-M   'P 1'
_cell_length_a   13.89110638
_cell_length_b   11.95390362
_cell_length_c   13.90228312
_cell_angle_alpha   90.00000000
_cell_angle_beta   109.18796438
_cell_angle_gamma   90.00000000
_symmetry_Int_Tables_number   1
_chemical_formula_structural   Li23Er8Br48
_chemical_formula_sum   'Li23 Er8 Br48'
_cell_volume   2180.26652082
_cell_formula_units_Z   1
loop_
 _symmetry_equiv_pos_site_id
 _symmetry_equiv_pos_as_xyz
  1  'x, y, z'
loop_
 _atom_type_symbol
 _atom_type_oxidation_number
  Li+  1.0
  Er3+  3.0
  Br-  -1.0
loop_
 _atom_site_type_symbol
 _atom_site_label
 _atom_site_symmetry_multiplicity
 _atom_site_fract_x
 _atom_site_fract_y
 _atom_site_fract_z
 _atom_site_occupancy
  Li+  Li0  1  0.25000000  0.82469404  0.00000000  1.0
  Li+  Li1  1  0.25000000  0.82469404  0.50000000  1.0
  Li+  Li2  1  0.75000000  0.82469404  1.00000000  1.0
  Li+  Li3  1  0.75000000  0.82469404  0.50000000  1.0
  Li+  Li4  1  0.25000000  0.17061443  0.00000000  1.0
  Li+  Li5  1  0.75000000  0.17061443  0.00000000  1.0
  Li+  Li6  1  0.75000000  0.17061443  0.50000000  1.0
  Li+  Li7  1  0.25000000  0.65211043  0.25000000  1.0
  Li+  Li8  1  0.25000000  0.65211043  0.75000000  1.0
  Li+  Li9  1  0.75000000  0.65211043  0.25000000  1.0
  Li+  Li10  1  0.75000000  0.65211043  0.75000000  1.0
  Li+  Li11  1  1.00000000  0.32469424  1.00000000  1.0
  Li+  Li12  1  1.00000000  0.32469424  0.50000000  1.0
  Li+  Li13  1  0.50000000  0.32469424  0.00000000  1.0
  Li+  Li14  1  0.50000000  0.32469424  0.50000000  1.0
  Li+  Li15  1  0.00000000  0.67061986  0.00000000  1.0
  Li+  Li16  1  0.00000000  0.67061986  0.50000000  1.0
  Li+  Li17  1  0.50000000  0.67061986  0.00000000  1.0
  Li+  Li18  1  0.50000000  0.67061986  0.50000000  1.0
  Li+  Li19  1  0.00000000  0.15211417  0.25000000  1.0
  Li+  Li20  1  0.00000000  0.15211417  0.75000000  1.0
  Li+  Li21  1  0.50000000  0.15211417  0.25000000  1.0
  Li+  Li22  1  0.50000000  0.15211417  0.75000000  1.0
  Er3+  Er23  1  0.25000000  0.49852159  1.00000000  1.0
  Er3+  Er24  1  0.25000000  0.49852159  0.50000000  1.0
  Er3+  Er25  1  0.75000000  0.49852159  1.00000000  1.0
  Er3+  Er26  1  0.75000000  0.49852159  0.50000000  1.0
  Er3+  Er27  1  0.00000000  0.99851916  0.00000000  1.0
  Er3+  Er28  1  0.00000000  0.99851916  0.50000000  1.0
  Er3+  Er29  1  0.50000000  0.99851916  1.00000000  1.0
  Er3+  Er30  1  0.50000000  0.99851916  0.50000000  1.0
  Br-  Br31  1  0.37634026  0.83055411  0.38667662  1.0
  Br-  Br32  1  0.37634026  0.83055411  0.88667662  1.0
  Br-  Br33  1  0.87634026  0.83055411  0.38667662  1.0
  Br-  Br34  1  0.87634026  0.83055411  0.88667662  1.0
  Br-  Br35  1  0.38514106  0.16543313  0.37519523  1.0
  Br-  Br36  1  0.38514106  0.16543313  0.87519523  1.0
  Br-  Br37  1  0.88514106  0.16543313  0.37519523  1.0
  Br-  Br38  1  0.88514106  0.16543313  0.87519522  1.0
  Br-  Br39  1  0.11485895  0.16543313  0.12480478  1.0
  Br-  Br40  1  0.11485895  0.16543313  0.62480477  1.0
  Br-  Br41  1  0.61485894  0.16543313  0.12480477  1.0
  Br-  Br42  1  0.61485894  0.16543313  0.62480477  1.0
  Br-  Br43  1  0.12365974  0.83055411  0.11332338  1.0
  Br-  Br44  1  0.12365974  0.83055411  0.61332338  1.0
  Br-  Br45  1  0.62365974  0.83055411  0.11332338  1.0
  Br-  Br46  1  0.62365974  0.83055411  0.61332338  1.0
  Br-  Br47  1  0.12709940  0.00853888  0.38267962  1.0
  Br-  Br48  1  0.12709940  0.00853888  0.88267962  1.0
  Br-  Br49  1  0.62709940  0.00853888  0.38267962  1.0
  Br-  Br50  1  0.62709940  0.00853888  0.88267962  1.0
  Br-  Br51  1  0.37290060  0.00853888  0.11732038  1.0
  Br-  Br52  1  0.37290060  0.00853888  0.61732038  1.0
  Br-  Br53  1  0.87290060  0.00853888  0.11732038  1.0
  Br-  Br54  1  0.87290060  0.00853888  0.61732038  1.0
  Br-  Br55  1  0.12634070  0.33055557  0.38667623  1.0
  Br-  Br56  1  0.12634070  0.33055557  0.88667623  1.0
  Br-  Br57  1  0.62634071  0.33055557  0.38667623  1.0
  Br-  Br58  1  0.62634071  0.33055557  0.88667622  1.0
  Br-  Br59  1  0.13514086  0.66543360  0.37519322  1.0
  Br-  Br60  1  0.13514086  0.66543360  0.87519322  1.0
  Br-  Br61  1  0.63514086  0.66543360  0.37519322  1.0
  Br-  Br62  1  0.63514086  0.66543360  0.87519321  1.0
  Br-  Br63  1  0.36485914  0.66543360  0.12480678  1.0
  Br-  Br64  1  0.36485914  0.66543360  0.62480678  1.0
  Br-  Br65  1  0.86485914  0.66543360  0.12480678  1.0
  Br-  Br66  1  0.86485914  0.66543360  0.62480678  1.0
  Br-  Br67  1  0.37365930  0.33055557  0.11332378  1.0
  Br-  Br68  1  0.37365930  0.33055557  0.61332378  1.0
  Br-  Br69  1  0.87365930  0.33055557  0.11332377  1.0
  Br-  Br70  1  0.87365930  0.33055557  0.61332378  1.0
  Br-  Br71  1  0.37710023  0.50854175  0.38268017  1.0
  Br-  Br72  1  0.37710023  0.50854175  0.88268017  1.0
  Br-  Br73  1  0.87710023  0.50854175  0.38268017  1.0
  Br-  Br74  1  0.87710023  0.50854175  0.88268017  1.0
  Br-  Br75  1  0.12289977  0.50854175  0.11731983  1.0
  Br-  Br76  1  0.12289977  0.50854175  0.61731983  1.0
  Br-  Br77  1  0.62289977  0.50854175  0.11731983  1.0
  Br-  Br78  1  0.62289977  0.50854175  0.61731983  1.0
