# generated using pymatgen
data_Li3ErBr6
_symmetry_space_group_name_H-M   C2
_cell_length_a   6.96735600
_cell_length_b   11.99887999
_cell_length_c   6.93866796
_cell_angle_alpha   90.00000000
_cell_angle_beta   109.57489749
_cell_angle_gamma   90.00000000
_symmetry_Int_Tables_number   5
_chemical_formula_structural   Li3ErBr6
_chemical_formula_sum   'Li6 Er2 Br12'
_cell_volume   546.55001769
_cell_formula_units_Z   2
loop_
 _symmetry_equiv_pos_site_id
 _symmetry_equiv_pos_as_xyz
  1  'x, y, z'
  2  '-x, y, -z'
  3  'x+1/2, y+1/2, z'
  4  '-x+1/2, y+1/2, -z'
loop_
 _atom_type_symbol
 _atom_type_oxidation_number
  Li+  1.0
  Er3+  3.0
  Br-  -1.0
loop_
 _atom_site_type_symbol
 _atom_site_label
 _atom_site_symmetry_multiplicity
 _atom_site_fract_x
 _atom_site_fract_y
 _atom_site_fract_z
 _atom_site_occupancy
  Li+  Li0  2  0.00000000  0.33186800  0.00000000  1.0
  Li+  Li1  2  0.00000000  0.67022000  0.00000000  1.0
  Li+  Li2  2  0.00000000  0.84288500  0.50000000  1.0
  Er3+  Er3  2  0.00000000  0.00245400  0.00000000  1.0
  Br-  Br4  4  0.23410050  0.83452950  0.24654800  1.0
  Br-  Br5  4  0.24814750  0.49417950  0.23872500  1.0
  Br-  Br6  4  0.24924900  0.17007700  0.23277000  1.0
