# generated using pymatgen
data_Aa21Ad21Ae21Aj21Aq21Ax21Ay21Az21Da21Li6Er2Br12
_symmetry_space_group_name_H-M   'P 1'
_cell_length_a   6.94555319
_cell_length_b   11.95390362
_cell_length_c   6.95114156
_cell_angle_alpha   90.00000000
_cell_angle_beta   109.18796438
_cell_angle_gamma   90.00000000
_symmetry_Int_Tables_number   1
_chemical_formula_structural
Aa21Ad21Ae21Aj21Aq21Ax21Ay21Az21Da21Li6Er2Br12
_chemical_formula_sum
'Aa21 Ad21 Ae21 Aj21 Aq21 Ax21 Ay21 Az21 Da21 Li6 Er2 Br12'
_cell_volume   545.06663020
_cell_formula_units_Z   1
loop_
 _symmetry_equiv_pos_site_id
 _symmetry_equiv_pos_as_xyz
  1  'x, y, z'
loop_
 _atom_type_symbol
 _atom_type_oxidation_number
  Aa0+  0.0
  Ad0+  0.0
  Ae0+  0.0
  Aj0+  0.0
  Aq0+  0.0
  Ax0+  0.0
  Ay0+  0.0
  Az0+  0.0
  Da0+  0.0
  Li+  1.0
  Er3+  3.0
  Br-  -1.0
loop_
 _atom_site_type_symbol
 _atom_site_label
 _atom_site_symmetry_multiplicity
 _atom_site_fract_x
 _atom_site_fract_y
 _atom_site_fract_z
 _atom_site_occupancy
  Li+  Li0  1  0.50000000  0.82469404  0.00000000  1
  Li+  Li1  1  0.50000000  0.17061443  0.00000000  1
  Li+  Li2  1  0.50000000  0.65211043  0.50000000  1
  Li+  Li3  1  0.00000000  0.32469424  0.00000000  1
  Li+  Li4  1  0.00000000  0.67061986  0.00000000  1
  Li+  Li5  1  0.00000000  0.15211417  0.50000000  1
  Er3+  Er6  1  0.50000000  0.49852159  0.00000000  1
  Er3+  Er7  1  0.00000000  0.99851916  0.00000000  1
  Br-  Br8  1  0.75268052  0.83055411  0.77335324  1
  Br-  Br9  1  0.77028211  0.16543313  0.75039045  1
  Br-  Br10  1  0.22971789  0.16543313  0.24960955  1
  Br-  Br11  1  0.24731948  0.83055411  0.22664676  1
  Br-  Br12  1  0.25419881  0.00853888  0.76535924  1
  Br-  Br13  1  0.74580119  0.00853888  0.23464076  1
  Br-  Br14  1  0.25268141  0.33055557  0.77335245  1
  Br-  Br15  1  0.27028172  0.66543360  0.75038643  1
  Br-  Br16  1  0.72971828  0.66543360  0.24961357  1
  Br-  Br17  1  0.74731859  0.33055557  0.22664755  1
  Br-  Br18  1  0.75420046  0.50854175  0.76536033  1
  Br-  Br19  1  0.24579954  0.50854175  0.23463967  1
  Aa0+  Aa20  1  0.50710000  0.17550000  1.00000000  1
  Aa0+  Aa21  1  0.50000000  0.18100000  0.93100000  1
  Aa0+  Aa22  1  0.48570000  0.18330000  0.86270000  1
  Aa0+  Aa23  1  0.45930000  0.18330000  0.79790000  1
  Aa0+  Aa24  1  0.44290000  0.18330000  0.72990000  1
  Aa0+  Aa25  1  0.42850000  0.17500000  0.66300000  1
  Aa0+  Aa26  1  0.43040000  0.14570000  0.61430000  1
  Aa0+  Aa27  1  0.45710000  0.11190000  0.58570000  1
  Aa0+  Aa28  1  0.47580000  0.07630000  0.55720000  1
  Aa0+  Aa29  1  0.50000000  0.04090000  0.53220000  1
  Aa0+  Aa30  1  0.51910000  0.00300000  0.51430000  1
  Aa0+  Aa31  1  0.54290000  -0.03330000  0.49330000  1
  Aa0+  Aa32  1  0.57140000  -0.06810000  0.47030000  1
  Aa0+  Aa33  1  0.60000000  -0.10170000  0.44290000  1
  Aa0+  Aa34  1  0.61930000  -0.13330000  0.40310000  1
  Aa0+  Aa35  1  0.61430000  -0.15000000  0.33950000  1
  Aa0+  Aa36  1  0.60000000  -0.15170000  0.27110000  1
  Aa0+  Aa37  1  0.58570000  -0.15570000  0.20300000  1
  Aa0+  Aa38  1  0.57040000  -0.15830000  0.13480000  1
  Aa0+  Aa39  1  0.54290000  -0.16130000  0.07080000  1
  Aa0+  Aa40  1  0.50710000  -0.17330000  0.01430000  1
  Ad0+  Ad41  1  0.01430000  0.67130000  1.00000000  1
  Ad0+  Ad42  1  -0.00010000  0.67500000  0.93250000  1
  Ad0+  Ad43  1  -0.02300000  0.67500000  0.86720000  1
  Ad0+  Ad44  1  -0.04280000  0.67500000  0.80080000  1
  Ad0+  Ad45  1  -0.06110000  0.67590000  0.73400000  1
  Ad0+  Ad46  1  -0.08570000  0.68330000  0.67050000  1
  Ad0+  Ad47  1  -0.07370000  0.70830000  0.61740000  1
  Ad0+  Ad48  1  -0.05710000  0.74290000  0.58570000  1
  Ad0+  Ad49  1  -0.04280000  0.77880000  0.55710000  1
  Ad0+  Ad50  1  -0.04700000  0.81170000  0.51720000  1
  Ad0+  Ad51  1  -0.09630000  0.83330000  0.48570000  1
  Ad0+  Ad52  1  -0.15870000  0.84170000  0.45920000  1
  Ad0+  Ad53  1  -0.22580000  0.84450000  0.44280000  1
  Ad0+  Ad54  1  -0.29330000  0.84820000  0.42860000  1
  Ad0+  Ad55  1  -0.35560000  0.85000000  0.39850000  1
  Ad0+  Ad56  1  -0.38490000  0.85000000  0.33570000  1
  Ad0+  Ad57  1  -0.40000000  0.84810000  0.26810000  1
  Ad0+  Ad58  1  -0.41430000  0.84420000  0.20070000  1
  Ad0+  Ad59  1  -0.42950000  0.84170000  0.13330000  1
  Ad0+  Ad60  1  -0.45710000  0.83870000  0.06990000  1
  Ad0+  Ad61  1  -0.49290000  0.82670000  0.01430000  1
  Ae0+  Ae62  1  0.50710000  0.68910000  0.50710000  1
  Ae0+  Ae63  1  0.53950000  0.68330000  0.52860000  1
  Ae0+  Ae64  1  0.57450000  0.67940000  0.54680000  1
  Ae0+  Ae65  1  0.61260000  0.67660000  0.55820000  1
  Ae0+  Ae66  1  0.65040000  0.67530000  0.57140000  1
  Ae0+  Ae67  1  0.68800000  0.67510000  0.58520000  1
  Ae0+  Ae68  1  0.72810000  0.67500000  0.58580000  1
  Ae0+  Ae69  1  0.76550000  0.67500000  0.60000000  1
  Ae0+  Ae70  1  0.80290000  0.67500000  0.61430000  1
  Ae0+  Ae71  1  0.84290000  0.67500000  0.61750000  1
  Ae0+  Ae72  1  0.88130000  0.67500000  0.62860000  1
  Ae0+  Ae73  1  0.90940000  0.67500000  0.65710000  1
  Ae0+  Ae74  1  0.92690000  0.67500000  0.69320000  1
  Ae0+  Ae75  1  0.93750000  0.67500000  0.73180000  1
  Ae0+  Ae76  1  0.94360000  0.67500000  0.77140000  1
  Ae0+  Ae77  1  0.95720000  0.67500000  0.80910000  1
  Ae0+  Ae78  1  0.97140000  0.67500000  0.84660000  1
  Ae0+  Ae79  1  0.98570000  0.67500000  0.88400000  1
  Ae0+  Ae80  1  0.99830000  0.67500000  0.92200000  1
  Ae0+  Ae81  1  1.00710000  0.67500000  0.96110000  1
  Ae0+  Ae82  1  1.01430000  0.67130000  1.00000000  1
  Aj0+  Aj83  1  0.03630000  0.17770000  0.52820000  1
  Aj0+  Aj84  1  0.01500000  0.19550000  0.52180000  1
  Aj0+  Aj85  1  -0.00270000  0.21500000  0.52350000  1
  Aj0+  Aj86  1  -0.02140000  0.23350000  0.53140000  1
  Aj0+  Aj87  1  -0.03870000  0.25200000  0.54290000  1
  Aj0+  Aj88  1  -0.05510000  0.27000000  0.55710000  1
  Aj0+  Aj89  1  -0.07100000  0.28820000  0.57150000  1
  Aj0+  Aj90  1  -0.08570000  0.30670000  0.58570000  1
  Aj0+  Aj91  1  -0.10000000  0.32500000  0.60120000  1
  Aj0+  Aj92  1  -0.10800000  0.34170000  0.62460000  1
  Aj0+  Aj93  1  -0.10170000  0.35000000  0.65900000  1
  Aj0+  Aj94  1  -0.09760000  0.35000000  0.69660000  1
  Aj0+  Aj95  1  -0.08570000  0.35000000  0.73250000  1
  Aj0+  Aj96  1  -0.07900000  0.35000000  0.76960000  1
  Aj0+  Aj97  1  -0.07140000  0.35000000  0.80670000  1
  Aj0+  Aj98  1  -0.05970000  0.35000000  0.84260000  1
  Aj0+  Aj99  1  -0.05180000  0.35000000  0.87950000  1
  Aj0+  Aj100  1  -0.04260000  0.34990000  0.91620000  1
  Aj0+  Aj101  1  -0.02860000  0.34720000  0.95100000  1
  Aj0+  Aj102  1  -0.01430000  0.34170000  0.98470000  1
  Aj0+  Aj103  1  0.00000000  0.33080000  1.01430000  1
  Aq0+  Aq104  1  0.50710000  0.68910000  0.50710000  1
  Aq0+  Aq105  1  0.50000000  0.70890000  0.51710000  1
  Aq0+  Aq106  1  0.48570000  0.72700000  0.52860000  1
  Aq0+  Aq107  1  0.47140000  0.74450000  0.54290000  1
  Aq0+  Aq108  1  0.45720000  0.76190000  0.55710000  1
  Aq0+  Aq109  1  0.44290000  0.77930000  0.57140000  1
  Aq0+  Aq110  1  0.42860000  0.79680000  0.58570000  1
  Aq0+  Aq111  1  0.41430000  0.81420000  0.60000000  1
  Aq0+  Aq112  1  0.40020000  0.83170000  0.61430000  1
  Aq0+  Aq113  1  0.40000000  0.84470000  0.64270000  1
  Aq0+  Aq114  1  0.40600000  0.85000000  0.67710000  1
  Aq0+  Aq115  1  0.41430000  0.85000000  0.71220000  1
  Aq0+  Aq116  1  0.42620000  0.85000000  0.74630000  1
  Aq0+  Aq117  1  0.42860000  0.84820000  0.78210000  1
  Aq0+  Aq118  1  0.44280000  0.84490000  0.81480000  1
  Aq0+  Aq119  1  0.44930000  0.84240000  0.85000000  1
  Aq0+  Aq120  1  0.45710000  0.84170000  0.88520000  1
  Aq0+  Aq121  1  0.47040000  0.84170000  0.91880000  1
  Aq0+  Aq122  1  0.48310000  0.84170000  0.95250000  1
  Aq0+  Aq123  1  0.49690000  0.83740000  0.98510000  1
  Aq0+  Aq124  1  0.50710000  0.82670000  1.01430000  1
  Ax0+  Ax125  1  0.03630000  0.17770000  0.52820000  1
  Ax0+  Ax126  1  0.04290000  0.14510000  0.50620000  1
  Ax0+  Ax127  1  0.06000000  0.11350000  0.48570000  1
  Ax0+  Ax128  1  0.08570000  0.08270000  0.47140000  1
  Ax0+  Ax129  1  0.11420000  0.05280000  0.45710000  1
  Ax0+  Ax130  1  0.14570000  0.02400000  0.44280000  1
  Ax0+  Ax131  1  0.19810000  0.00650000  0.44290000  1
  Ax0+  Ax132  1  0.25740000  0.00000000  0.44540000  1
  Ax0+  Ax133  1  0.31660000  -0.00160000  0.45720000  1
  Ax0+  Ax134  1  0.37500000  -0.00370000  0.47190000  1
  Ax0+  Ax135  1  0.42860000  -0.01030000  0.49730000  1
  Ax0+  Ax136  1  0.46030000  -0.03410000  0.52860000  1
  Ax0+  Ax137  1  0.45710000  -0.06510000  0.55710000  1
  Ax0+  Ax138  1  0.43430000  -0.09410000  0.58250000  1
  Ax0+  Ax139  1  0.41430000  -0.12570000  0.60000000  1
  Ax0+  Ax140  1  0.40000000  -0.15920000  0.61230000  1
  Ax0+  Ax141  1  0.41650000  -0.19170000  0.59580000  1
  Ax0+  Ax142  1  0.44290000  -0.22000000  0.57140000  1
  Ax0+  Ax143  1  0.47020000  -0.24910000  0.55140000  1
  Ax0+  Ax144  1  0.49210000  -0.27920000  0.52860000  1
  Ax0+  Ax145  1  0.50710000  -0.31090000  0.50710000  1
  Ay0+  Ay146  1  0.50710000  0.17550000  1.00000000  1
  Ay0+  Ay147  1  0.53680000  0.15000000  0.97050000  1
  Ay0+  Ay148  1  0.55720000  0.12100000  0.94280000  1
  Ay0+  Ay149  1  0.57500000  0.09170000  0.91430000  1
  Ay0+  Ay150  1  0.59370000  0.06230000  0.88650000  1
  Ay0+  Ay151  1  0.60010000  0.03330000  0.85250000  1
  Ay0+  Ay152  1  0.59990000  0.01900000  0.79720000  1
  Ay0+  Ay153  1  0.58570000  0.01470000  0.73890000  1
  Ay0+  Ay154  1  0.57140000  0.01030000  0.68060000  1
  Ay0+  Ay155  1  0.55230000  0.00530000  0.62390000  1
  Ay0+  Ay156  1  0.52860000  -0.00830000  0.57340000  1
  Ay0+  Ay157  1  0.49370000  -0.03510000  0.55500000  1
  Ay0+  Ay158  1  0.46520000  -0.06590000  0.56180000  1
  Ay0+  Ay159  1  0.43810000  -0.09450000  0.58500000  1
  Ay0+  Ay160  1  0.41430000  -0.12560000  0.60020000  1
  Ay0+  Ay161  1  0.40000000  -0.15910000  0.61300000  1
  Ay0+  Ay162  1  0.41620000  -0.19170000  0.59630000  1
  Ay0+  Ay163  1  0.44290000  -0.21980000  0.57140000  1
  Ay0+  Ay164  1  0.47030000  -0.24900000  0.55140000  1
  Ay0+  Ay165  1  0.49220000  -0.27910000  0.52860000  1
  Ay0+  Ay166  1  0.50710000  -0.31090000  0.50710000  1
  Az0+  Az167  1  0.03630000  0.17770000  0.52820000  1
  Az0+  Az168  1  0.04290000  0.14400000  0.50670000  1
  Az0+  Az169  1  0.06030000  0.11150000  0.48570000  1
  Az0+  Az170  1  0.08570000  0.07970000  0.47050000  1
  Az0+  Az171  1  0.11430000  0.05000000  0.44990000  1
  Az0+  Az172  1  0.15510000  0.02310000  0.44270000  1
  Az0+  Az173  1  0.21160000  0.00830000  0.44290000  1
  Az0+  Az174  1  0.27140000  0.00310000  0.45650000  1
  Az0+  Az175  1  0.33270000  0.00190000  0.46530000  1
  Az0+  Az176  1  0.39450000  0.00340000  0.47010000  1
  Az0+  Az177  1  0.44980000  0.00680000  0.44290000  1
  Az0+  Az178  1  0.46410000  0.00830000  0.38260000  1
  Az0+  Az179  1  0.45710000  0.00830000  0.32100000  1
  Az0+  Az180  1  0.44280000  0.00750000  0.26070000  1
  Az0+  Az181  1  0.42860000  0.00000000  0.20180000  1
  Az0+  Az182  1  0.42860000  -0.02030000  0.15060000  1
  Az0+  Az183  1  0.44290000  -0.04840000  0.11430000  1
  Az0+  Az184  1  0.47140000  -0.07590000  0.08570000  1
  Az0+  Az185  1  0.48750000  -0.10710000  0.05880000  1
  Az0+  Az186  1  0.50150000  -0.13940000  0.03500000  1
  Az0+  Az187  1  0.50710000  -0.17330000  0.01430000  1
  Da0+  Da188  1  0.03630000  0.17770000  0.52820000  1
  Da0+  Da189  1  0.00130000  0.18330000  0.50810000  1
  Da0+  Da190  1  -0.02610000  0.18330000  0.47690000  1
  Da0+  Da191  1  -0.04330000  0.18330000  0.43920000  1
  Da0+  Da192  1  -0.05710000  0.18330000  0.40000000  1
  Da0+  Da193  1  -0.06300000  0.18330000  0.35890000  1
  Da0+  Da194  1  -0.07140000  0.18340000  0.31830000  1
  Da0+  Da195  1  -0.08570000  0.18340000  0.27930000  1
  Da0+  Da196  1  -0.10000000  0.18330000  0.24030000  1
  Da0+  Da197  1  -0.10980000  0.18340000  0.20000000  1
  Da0+  Da198  1  -0.11800000  0.18620000  0.15960000  1
  Da0+  Da199  1  -0.14520000  0.18890000  0.12860000  1
  Da0+  Da200  1  -0.18300000  0.18330000  0.11430000  1
  Da0+  Da201  1  -0.22200000  0.18330000  0.10000000  1
  Da0+  Da202  1  -0.26090000  0.18330000  0.08570000  1
  Da0+  Da203  1  -0.29990000  0.18330000  0.07140000  1
  Da0+  Da204  1  -0.33890000  0.18330000  0.05720000  1
  Da0+  Da205  1  -0.37790000  0.18330000  0.04290000  1
  Da0+  Da206  1  -0.41750000  0.18330000  0.03060000  1
  Da0+  Da207  1  -0.45710000  0.18110000  0.01890000  1
  Da0+  Da208  1  -0.49290000  0.17550000  0.00000000  1
