# generated using pymatgen
data_Aq21Li6Er2Br12
_symmetry_space_group_name_H-M   'P 1'
_cell_length_a   6.94555319
_cell_length_b   11.95390362
_cell_length_c   6.95114156
_cell_angle_alpha   90.00000000
_cell_angle_beta   109.18796438
_cell_angle_gamma   90.00000000
_symmetry_Int_Tables_number   1
_chemical_formula_structural   Aq21Li6Er2Br12
_chemical_formula_sum   'Aq21 Li6 Er2 Br12'
_cell_volume   545.06663020
_cell_formula_units_Z   1
loop_
 _symmetry_equiv_pos_site_id
 _symmetry_equiv_pos_as_xyz
  1  'x, y, z'
loop_
 _atom_type_symbol
 _atom_type_oxidation_number
  Aq0+  0.0
  Li+  1.0
  Er3+  3.0
  Br-  -1.0
loop_
 _atom_site_type_symbol
 _atom_site_label
 _atom_site_symmetry_multiplicity
 _atom_site_fract_x
 _atom_site_fract_y
 _atom_site_fract_z
 _atom_site_occupancy
  Li+  Li0  1  0.50000000  0.82469404  0.00000000  1
  Li+  Li1  1  0.50000000  0.17061443  0.00000000  1
  Li+  Li2  1  0.50000000  0.65211043  0.50000000  1
  Li+  Li3  1  0.00000000  0.32469424  0.00000000  1
  Li+  Li4  1  0.00000000  0.67061986  0.00000000  1
  Li+  Li5  1  0.00000000  0.15211417  0.50000000  1
  Er3+  Er6  1  0.50000000  0.49852159  0.00000000  1
  Er3+  Er7  1  0.00000000  0.99851916  0.00000000  1
  Br-  Br8  1  0.75268052  0.83055411  0.77335324  1
  Br-  Br9  1  0.77028211  0.16543313  0.75039045  1
  Br-  Br10  1  0.22971789  0.16543313  0.24960955  1
  Br-  Br11  1  0.24731948  0.83055411  0.22664676  1
  Br-  Br12  1  0.25419881  0.00853888  0.76535924  1
  Br-  Br13  1  0.74580119  0.00853888  0.23464076  1
  Br-  Br14  1  0.25268141  0.33055557  0.77335245  1
  Br-  Br15  1  0.27028172  0.66543360  0.75038643  1
  Br-  Br16  1  0.72971828  0.66543360  0.24961357  1
  Br-  Br17  1  0.74731859  0.33055557  0.22664755  1
  Br-  Br18  1  0.75420046  0.50854175  0.76536033  1
  Br-  Br19  1  0.24579954  0.50854175  0.23463967  1
  Aq0+  Aq20  1  0.50710000  0.68910000  0.50710000  1
  Aq0+  Aq21  1  0.50000000  0.70890000  0.51710000  1
  Aq0+  Aq22  1  0.48570000  0.72700000  0.52860000  1
  Aq0+  Aq23  1  0.47140000  0.74450000  0.54290000  1
  Aq0+  Aq24  1  0.45720000  0.76190000  0.55710000  1
  Aq0+  Aq25  1  0.44290000  0.77930000  0.57140000  1
  Aq0+  Aq26  1  0.42860000  0.79680000  0.58570000  1
  Aq0+  Aq27  1  0.41430000  0.81420000  0.60000000  1
  Aq0+  Aq28  1  0.40020000  0.83170000  0.61430000  1
  Aq0+  Aq29  1  0.40000000  0.84470000  0.64270000  1
  Aq0+  Aq30  1  0.40600000  0.85000000  0.67710000  1
  Aq0+  Aq31  1  0.41430000  0.85000000  0.71220000  1
  Aq0+  Aq32  1  0.42620000  0.85000000  0.74630000  1
  Aq0+  Aq33  1  0.42860000  0.84820000  0.78210000  1
  Aq0+  Aq34  1  0.44280000  0.84490000  0.81480000  1
  Aq0+  Aq35  1  0.44930000  0.84240000  0.85000000  1
  Aq0+  Aq36  1  0.45710000  0.84170000  0.88520000  1
  Aq0+  Aq37  1  0.47040000  0.84170000  0.91880000  1
  Aq0+  Aq38  1  0.48310000  0.84170000  0.95250000  1
  Aq0+  Aq39  1  0.49690000  0.83740000  0.98510000  1
  Aq0+  Aq40  1  0.50710000  0.82670000  1.01430000  1
